LTspice 24.1.0 for Windows
Circuit: C:\Users\sunzi\Documents\Study\LaTech\BIOM_510_Bioinstrumentation\HW\7\hw7.net
Start Time: Fri Feb 28 19:40:05 2025
solver = Normal
Maximum thread count: 16
tnom = 27
temp = 27
method = trap
Direct Newton iteration failed to find .op point.  (Use ".option noopiter" to skip.)
Starting Gmin stepping
Gmin = 10
Gmin = 1.07374
Gmin = 0.115292
Gmin = 0.0123794
Gmin = 0.00132923
Gmin = 0.000142725
Gmin = 1.5325e-05
Gmin = 1.6455e-06
vernier = 0.5
Gmin = 4.20774e-07
vernier = 0.666667
vernier = 0.888888
Gmin = 8.12392e-08
vernier = 1
Gmin = 9.33136e-09
Gmin = 1.00195e-09
Gmin = 1.07583e-10
Gmin = 1.15517e-11
Gmin = 1.24035e-12
Gmin = 1.33182e-13
Gmin = 0
Gmin stepping succeeded in finding the operating point.

.step r=1500
.step r=2000
Total elapsed time: 1.310 seconds.

Files loaded:
C:\Users\sunzi\Documents\Study\LaTech\BIOM_510_Bioinstrumentation\HW\7\hw7.net
C:\Users\sunzi\AppData\Local\LTspice\lib\sub\LTC.lib

