LTspice 24.0.12 for Windows
Circuit: * C:\Users\sunzi\Documents\Study\LaTech\BIOM_510_Bioinstrumentation\Lab\Lab3\Lab3.asc
Start Time: Fri Jan 17 20:41:30 2025
solver = Normal
Maximum thread count: 12
tnom = 27
temp = 27
method = modified trap
Direct Newton iteration for .op point succeeded.
Total elapsed time: 0.016 seconds.

