LTspice 24.0.12 for Windows
Circuit: * C:\Users\sunzi\Documents\Study\LaTech\BIOM_510_Bioinstrumentation\HW\3\HW3_DiodeRectifier.asc
Start Time: Sat Jan 18 13:35:24 2025
solver = Normal
Maximum thread count: 16
tnom = 27
temp = 27
method = modified trap
Direct Newton iteration for .op point succeeded.
Total elapsed time: 0.199 seconds.

